[TITLE]
Wuhan Shahu WWTP Drainage Area Model 2006,

[OPTIONS]
FLOW_UNITS           MLD
INFILTRATION         HORTON
FLOW_ROUTING         DYNWAVE
START_DATE           {$START_DATE}
START_TIME           {$START_TIME}
REPORT_START_DATE    {$REPORT_START_DATE}
REPORT_START_TIME    {$REPORT_START_TIME}
END_DATE             {$END_DATE}
END_TIME             {$END_TIME}
SWEEP_START          {$SWEEP_START}
SWEEP_END            {$SWEEP_END}
DRY_DAYS             {$DRY_DAYS}
REPORT_STEP          {$REPORT_STEP}
WET_STEP             0:05:00
DRY_STEP             23:00:00
ROUTING_STEP         0:01:00 
ALLOW_PONDING        NO
INERTIAL_DAMPING     PARTIAL
VARIABLE_STEP        0.75
LENGTHENING_STEP     5
MIN_SURFAREA         0
NORMAL_FLOW_LIMITED  BOTH
SKIP_STEADY_STATE    YES
IGNORE_RAINFALL      NO
FORCE_MAIN_EQUATION  H-W
LINK_OFFSETS         DEPTH

[REPORTS]
NODES   JYS2326
NODES   TIYUAN1
NODES   FHS70
NODES   FHS72
NODES   FHS66
NODES   GAOZHILOU
NODES   KYS1278
NODES   KWS506
NODES   SHALKOUT008
NODES   WUDAJIEGOULOU
NODES   WUDA1
NODES   WUDA2
NODES   JWS241
NODES   JYS330
NODES   CHUYUANDASHA
NODES   ZHONGKEYUAN
NODES   JWS125
NODES   SHUIGUOHUPS
NODES   IYS1412
NODES   IHS269
NODES   IHS270
NODES   FYS660
NODES   SHUISHENGSUO
NODES   JYS25
NODES   KWS113
NODES   PYS5704
NODES   GASSTATION
NODES   SHALKOUT006
NODES   FENGGUANGCUN1
NODES   SHALKOUT007

[EVAPORATION]
;;Type       Parameters
;;---------- ----------
MONTHLY      0.98   0.89   1.62   2.23   3.31   4.13   4.58   4.08   3.50   1.95   1.68   1.44  

[RAINGAGES]
;;               Rain      Recd.  Snow   Data      
;;Name           Type      Freq.  Catch  Source    
;;-------------- --------- ------ ------ ----------
Wuhan            VOLUME    1      1      TIMESERIES {$TIMESERIES}            

[SUBCATCHMENTS]
;;                                                 Total    Pcnt.             Pcnt.    Curb     Snow    
;;Name           Raingage         Outlet           Area     Imperv   Width    Slope    Length   Pack    
;;-------------- ---------------- ---------------- -------- -------- -------- -------- -------- --------
NHS261_NHS261    Wuhan            NHS261           6.48     60       255      0.88     0                        
NHS241_NHS241    Wuhan            NHS241           28.67    60       535      1.55     0                        
NHS259_NHS259    Wuhan            NHS259           5.27     60       230      0.71     0                        
NHS244_NHS244    Wuhan            NHS244           32.12    60       567      1.64     0                        
NHS217_SHALKOUT005 Wuhan            SHALKOUT005      14.63    60       382      1.29     0                        
FHS77_SHALKOUT002 Wuhan            SHALKOUT002      33.31    60       577      0.31     0                        
PYS5682_SHALKOUT003 Wuhan            SHALKOUT003      24.66    60       497      1.89     0                        
NYS2751_SHALKOUT004 Wuhan            SHALKOUT004      12.51    60       354      1.81     0                        
NHS235_NHS235    Wuhan            NHS235           21.36    60       462      1.62     0                        
PYS5671_PYS5671  Wuhan            PYS5671          43.86    60       662      1.02     0                        
TIYUAN1_TIYUAN1  Wuhan            TIYUAN1          14.35    60       379      0.70     0                        
IYS435_IYS435    Wuhan            IYS435           10.79    60       328      2.03     0                        
IYS476_IYS476    Wuhan            IYS476           68.14    60       825      2.73     0                        
JWS118_IYS1367   Wuhan            IYS1367          13.42    60       368      1.34     0                        
IWS279_IYS1388   Wuhan            IYS1388          31.07    60       639      7.71     0                        
JYS2328_JYS2328  Wuhan            JYS2328          39.92    60       1027     6.79     0                        
JWS305_KYS417    Wuhan            KYS417           40.03    60       633      3.11     0                        
IWS21_IYS63      Wuhan            IYS63            18.50    60       430      5.81     0                        
IWS8_IYS38       Wuhan            IYS38            11.35    60       337      3.93     0                        
IWS1_IYS1376     Wuhan            IYS1376          7.28     60       270      4.26     0                        
IWS7_IYS32       Wuhan            IYS32            7.25     60       269      6.37     0                        
IYS344_IYS344    Wuhan            IYS344           2.09     60       144      5.12     0                        
IWS92_IYS220     Wuhan            IYS220           5.55     60       236      3.74     0                        
IWS88_IWS88      Wuhan            IWS88            1.89     60       137      2.62     0                        
IWS309_IYS175    Wuhan            IYS175           4.58     60       214      4.03     0                        
IWS305_IYS152    Wuhan            IYS152           1.72     60       131      1.93     0                        
UNKNOWNOUT001_UNKNOWNOUT001 Wuhan            UNKNOWNOUT001    159.97   60       1265     1.50     0                        
UNKNOWNOUT002_UNKNOWNOUT002 Wuhan            UNKNOWNOUT002    46.88    60       685      15.55    0                        
CHUYUANDASHA_CHUYUANDASHA Wuhan            CHUYUANDASHA     17.67    60       421      1.52     0                        
JWS146_ZHONGKEYUAN Wuhan            ZHONGKEYUAN      9.77     60       317      1.43     0                        
JWS196_JYS196    Wuhan            JYS196           18.11    60       426      14.54    0                        
JWS227_JYS327    Wuhan            JYS327           31.74    60       506      10.13    0                        
JWS255_JYS244    Wuhan            JYS244           17.74    60       421      6.13     0                        
JWS103_SHALKOUT006 Wuhan            SHALKOUT006      21.41    60       379      15.69    0                        
JWS25_SHALKOUT007 Wuhan            SHALKOUT007      6.66     60       232      3.81     0                        
JWS93_WUDA1      Wuhan            WUDA1            5.48     60       234      11.49    0                        
JWS37_WUDA2      Wuhan            WUDA2            56.96    60       770      13.56    0                        
JWS49_WUDAJIEGOULOU Wuhan            WUDAJIEGOULOU    32.69    60       572      4.55     0                        
IWS288_SHALKOUT008 Wuhan            SHALKOUT008      6.70     60       260      1.60     0                        
KWS16_KWS16      Wuhan            KWS16            4.20     60       205      2.39     0                        
KWS22_KWS22      Wuhan            KWS22            11.65    60       341      1.70     0                        
PYS5680_PYS5680  Wuhan            PYS5680          24.20    60       492      1.02     0                        
PYS5685_PYS5685  Wuhan            PYS5685          18.45    60       430      2.10     0                        
KYS382_KYS382    Wuhan            KYS382           22.63    60       476      9.94     0                        
IYS964_IYS964    Wuhan            IYS964           17.62    60       420      12.57    0                        
IHS254_IHS189    Wuhan            IHS189           25.52    60       505      1.98     0                        
IYS399_IYS399    Wuhan            IYS399           32.44    60       570      2.22     0                        
FYS269_FWS80     Wuhan            FWS80            24.43    60       494      1.30     0                        
FWS42_SHACKOUT001 Wuhan            SHACKOUT001      25.25    60       502      1.99     0                        
KWS55_KYS227     Wuhan            KYS227           37.44    60       612      1.54     0                        
FWS220_GAOZHILOU Wuhan            GAOZHILOU        37.53    60       613      1.26     0                        
FWS213_FYS636    Wuhan            FYS636           10.16    60       319      1.78     0                        
FWS175_FYS476    Wuhan            FYS476           2.18     60       148      2.80     0                        
FWS192_FYS540    Wuhan            FYS540           15.30    60       391      0.82     0                        
FWS119_FYS1257   Wuhan            FYS1257          8.55     60       292      1.03     0                        
FWS295_FYS949    Wuhan            FYS949           18.13    60       426      0.79     0                        
KHS8_KYS611      Wuhan            KYS611           25.14    60       501      9.78     0                        
KHS14_KWS165     Wuhan            KWS165           11.90    60       345      23.17    0                        
KHS1_KHS1        Wuhan            KHS1             9.01     60       300      2.19     0                        
KHS19_KHS19      Wuhan            KHS19            6.98     60       264      1.96     0                        
IWS258_IHS235    Wuhan            IHS235           51.04    60       714      7.30     0                        
IWS265_IYS1343   Wuhan            IYS1343          12.97    60       360      9.80     0                        
IWS206_IYS877    Wuhan            IYS877           14.48    60       381      19.83    0                        
KWS198_KWS198    Wuhan            KWS198           5.17     60       227      1.72     0                        
KWS288_KWS288    Wuhan            KWS288           20.84    60       456      1.40     0                        
KWS208_KWS208    Wuhan            KWS208           12.15    60       349      1.55     0                        
IHS181_IHS179    Wuhan            IHS179           6.64     60       258      2.78     0                        
IHS152_IHS152    Wuhan            IHS152           4.28     60       207      1.68     0                        
IHS154_IHS154    Wuhan            IHS154           9.56     60       309      8.08     0                        
IYS1420_IYS1420  Wuhan            IYS1420          5.90     60       243      2.61     0                        
IYS1126_IYS1126  Wuhan            IYS1126          7.54     60       275      1.76     0                        
IHS49_IHS49      Wuhan            IHS49            26.25    60       512      4.01     0                        
IWS165_IYS715    Wuhan            IYS715           9.98     60       316      5.73     0                        
IHS89_IHS90      Wuhan            IHS90            3.05     60       175      2.25     0                        
IHS94_IHS94      Wuhan            IHS94            32.34    60       569      4.01     0                        
IWS318_IYS614    Wuhan            IYS614           16.50    60       406      1.51     0                        
KYS1431_KWS49    Wuhan            KWS49            4.94     60       222      1.44     0                        
JYS1086_JYS1086  Wuhan            JYS1086          4.38     60       209      0.23     0                        
FYS1188_FYS1188  Wuhan            FYS1188          2.61     60       162      0.80     0                        
JYS1065_JYS1065  Wuhan            JYS1065          2.64     60       163      1.53     0                        
KHS38_KWS485     Wuhan            KWS485           14.82    60       385      1.68     0                        
FYS1028_FYS1028  Wuhan            FYS1028          6.72     60       259      1.09     0                        
KWS412_KWS412    Wuhan            KWS412           14.90    60       386      0.94     0                        
KYS1098_KYS1098  Wuhan            KYS1098          6.84     60       262      1.43     0                        
FWS288_FYS1161   Wuhan            FYS1161          6.37     60       252      1.65     0                        
FYS1242_FYS1242  Wuhan            FYS1242          14.27    60       378      1.16     0                        
FWS318_FYS1115   Wuhan            FYS1115          8.52     60       292      2.70     0                        
FWS320_FYS1094   Wuhan            FYS1094          10.23    60       320      0.87     0                        
FWS338_FYS881    Wuhan            FYS881           10.93    60       331      1.89     0                        
FWS280_FYS860    Wuhan            FYS860           25.12    60       501      1.97     0                        
FWS152_FYS555    Wuhan            FYS555           9.67     60       311      1.06     0                        
FWS106_FYS546    Wuhan            FYS546           3.33     60       183      1.98     0                        
FHS75_FHS75      Wuhan            FHS75            11.90    60       345      1.78     0                        
FHS12_FHS12      Wuhan            FHS12            9.63     60       310      2.62     0                        
FHS68_FHS68      Wuhan            FHS68            33.66    60       580      2.67     0                        
IWS296_SHUISHENGSUO Wuhan            SHUISHENGSUO     36.45    60       604      4.63     0                        
GASSTATION_GASSTATION Wuhan            GASSTATION       31.74    60       248      0.43     0                        
FENGGUANGCUN1_FENGGUANGCUN1 Wuhan            FENGGUANGCUN1    21.41    60       143      22.49    0                        
JYS23_JYS23      Wuhan            JYS23            21.41    60       200      15.32    0                        

[SUBAREAS]
;;Subcatchment   N-Imperv   N-Perv     S-Imperv   S-Perv     PctZero    RouteTo    PctRouted 
;;-------------- ---------- ---------- ---------- ---------- ---------- ---------- ----------
NHS261_NHS261    0.02       0.2        0.254      2.54       50         OUTLET    
NHS241_NHS241    0.02       0.2        0.254      2.54       50         OUTLET    
NHS259_NHS259    0.02       0.2        0.254      2.54       50         OUTLET    
NHS244_NHS244    0.02       0.2        0.254      2.54       50         OUTLET    
NHS217_SHALKOUT005 0.02       0.2        0.254      2.54       50         OUTLET    
FHS77_SHALKOUT002 0.02       0.2        0.254      2.54       50         OUTLET    
PYS5682_SHALKOUT003 0.02       0.2        0.254      2.54       50         OUTLET    
NYS2751_SHALKOUT004 0.02       0.2        0.254      2.54       50         OUTLET    
NHS235_NHS235    0.02       0.2        0.254      2.54       50         OUTLET    
PYS5671_PYS5671  0.02       0.2        0.254      2.54       50         OUTLET    
TIYUAN1_TIYUAN1  0.02       0.2        0.254      2.54       50         OUTLET    
IYS435_IYS435    0.02       0.2        0.254      2.54       50         OUTLET    
IYS476_IYS476    0.02       0.2        0.254      2.54       50         OUTLET    
JWS118_IYS1367   0.02       0.2        0.254      2.54       50         OUTLET    
IWS279_IYS1388   0.02       0.2        0.254      2.54       50         OUTLET    
JYS2328_JYS2328  0.02       0.2        0.254      2.54       50         OUTLET    
JWS305_KYS417    0.02       0.2        0.254      2.54       50         OUTLET    
IWS21_IYS63      0.02       0.2        0.254      2.54       50         OUTLET    
IWS8_IYS38       0.02       0.2        0.254      2.54       50         OUTLET    
IWS1_IYS1376     0.02       0.2        0.254      2.54       50         OUTLET    
IWS7_IYS32       0.02       0.2        0.254      2.54       50         OUTLET    
IYS344_IYS344    0.02       0.2        0.254      2.54       50         OUTLET    
IWS92_IYS220     0.02       0.2        0.254      2.54       50         OUTLET    
IWS88_IWS88      0.02       0.2        0.254      2.54       50         OUTLET    
IWS309_IYS175    0.02       0.2        0.254      2.54       50         OUTLET    
IWS305_IYS152    0.02       0.2        0.254      2.54       50         OUTLET    
UNKNOWNOUT001_UNKNOWNOUT001 0.02       0.2        0.254      2.54       50         OUTLET    
UNKNOWNOUT002_UNKNOWNOUT002 0.02       0.2        0.254      2.54       50         OUTLET    
CHUYUANDASHA_CHUYUANDASHA 0.02       0.2        0.254      2.54       50         OUTLET    
JWS146_ZHONGKEYUAN 0.02       0.2        0.254      2.54       50         OUTLET    
JWS196_JYS196    0.02       0.2        0.254      2.54       50         OUTLET    
JWS227_JYS327    0.02       0.2        0.254      2.54       50         OUTLET    
JWS255_JYS244    0.02       0.2        0.254      2.54       50         OUTLET    
JWS103_SHALKOUT006 0.02       0.2        0.254      2.54       50         OUTLET    
JWS25_SHALKOUT007 0.02       0.2        0.254      2.54       50         OUTLET    
JWS93_WUDA1      0.02       0.2        0.254      2.54       50         OUTLET    
JWS37_WUDA2      0.02       0.2        0.254      2.54       50         OUTLET    
JWS49_WUDAJIEGOULOU 0.02       0.2        0.254      2.54       50         OUTLET    
IWS288_SHALKOUT008 0.02       0.2        0.254      2.54       50         OUTLET    
KWS16_KWS16      0.02       0.2        0.254      2.54       50         OUTLET    
KWS22_KWS22      0.02       0.2        0.254      2.54       50         OUTLET    
PYS5680_PYS5680  0.02       0.2        0.254      2.54       50         OUTLET    
PYS5685_PYS5685  0.02       0.2        0.254      2.54       50         OUTLET    
KYS382_KYS382    0.02       0.2        0.254      2.54       50         OUTLET    
IYS964_IYS964    0.02       0.2        0.254      2.54       50         OUTLET    
IHS254_IHS189    0.02       0.2        0.254      2.54       50         OUTLET    
IYS399_IYS399    0.02       0.2        0.254      2.54       50         OUTLET    
FYS269_FWS80     0.02       0.2        0.254      2.54       50         OUTLET    
FWS42_SHACKOUT001 0.02       0.2        0.254      2.54       50         OUTLET    
KWS55_KYS227     0.02       0.2        0.254      2.54       50         OUTLET    
FWS220_GAOZHILOU 0.02       0.2        0.254      2.54       50         OUTLET    
FWS213_FYS636    0.02       0.2        0.254      2.54       50         OUTLET    
FWS175_FYS476    0.02       0.2        0.254      2.54       50         OUTLET    
FWS192_FYS540    0.02       0.2        0.254      2.54       50         OUTLET    
FWS119_FYS1257   0.02       0.2        0.254      2.54       50         OUTLET    
FWS295_FYS949    0.02       0.2        0.254      2.54       50         OUTLET    
KHS8_KYS611      0.02       0.2        0.254      2.54       50         OUTLET    
KHS14_KWS165     0.02       0.2        0.254      2.54       50         OUTLET    
KHS1_KHS1        0.02       0.2        0.254      2.54       50         OUTLET    
KHS19_KHS19      0.02       0.2        0.254      2.54       50         OUTLET    
IWS258_IHS235    0.02       0.2        0.254      2.54       50         OUTLET    
IWS265_IYS1343   0.02       0.2        0.254      2.54       50         OUTLET    
IWS206_IYS877    0.02       0.2        0.254      2.54       50         OUTLET    
KWS198_KWS198    0.02       0.2        0.254      2.54       50         OUTLET    
KWS288_KWS288    0.02       0.2        0.254      2.54       50         OUTLET    
KWS208_KWS208    0.02       0.2        0.254      2.54       50         OUTLET    
IHS181_IHS179    0.02       0.2        0.254      2.54       50         OUTLET    
IHS152_IHS152    0.02       0.2        0.254      2.54       50         OUTLET    
IHS154_IHS154    0.02       0.2        0.254      2.54       50         OUTLET    
IYS1420_IYS1420  0.02       0.2        0.254      2.54       50         OUTLET    
IYS1126_IYS1126  0.02       0.2        0.254      2.54       50         OUTLET    
IHS49_IHS49      0.02       0.2        0.254      2.54       50         OUTLET    
IWS165_IYS715    0.02       0.2        0.254      2.54       50         OUTLET    
IHS89_IHS90      0.02       0.2        0.254      2.54       50         OUTLET    
IHS94_IHS94      0.02       0.2        0.254      2.54       50         OUTLET    
IWS318_IYS614    0.02       0.2        0.254      2.54       50         OUTLET    
KYS1431_KWS49    0.02       0.2        0.254      2.54       50         OUTLET    
JYS1086_JYS1086  0.02       0.2        0.254      2.54       50         OUTLET    
FYS1188_FYS1188  0.02       0.2        0.254      2.54       50         OUTLET    
JYS1065_JYS1065  0.02       0.2        0.254      2.54       50         OUTLET    
KHS38_KWS485     0.02       0.2        0.254      2.54       50         OUTLET    
FYS1028_FYS1028  0.02       0.2        0.254      2.54       50         OUTLET    
KWS412_KWS412    0.02       0.2        0.254      2.54       50         OUTLET    
KYS1098_KYS1098  0.02       0.2        0.254      2.54       50         OUTLET    
FWS288_FYS1161   0.02       0.2        0.254      2.54       50         OUTLET    
FYS1242_FYS1242  0.02       0.2        0.254      2.54       50         OUTLET    
FWS318_FYS1115   0.02       0.2        0.254      2.54       50         OUTLET    
FWS320_FYS1094   0.02       0.2        0.254      2.54       50         OUTLET    
FWS338_FYS881    0.02       0.2        0.254      2.54       50         OUTLET    
FWS280_FYS860    0.02       0.2        0.254      2.54       50         OUTLET    
FWS152_FYS555    0.02       0.2        0.254      2.54       50         OUTLET    
FWS106_FYS546    0.02       0.2        0.254      2.54       50         OUTLET    
FHS75_FHS75      0.02       0.2        0.254      2.54       50         OUTLET    
FHS12_FHS12      0.02       0.2        0.254      2.54       50         OUTLET    
FHS68_FHS68      0.02       0.2        0.254      2.54       50         OUTLET    
IWS296_SHUISHENGSUO 0.02       0.2        0.254      2.54       50         OUTLET    
GASSTATION_GASSTATION 0.02       0.2        0.254      2.54       50         OUTLET    
FENGGUANGCUN1_FENGGUANGCUN1 0.02       0.2        0.254      2.54       50         OUTLET    
JYS23_JYS23      0.02       0.2        0.254      2.54       50         OUTLET    

[INFILTRATION]
;;Subcatchment   MaxRate    MinRate    Decay      DryTime    MaxInfil  
;;-------------- ---------- ---------- ---------- ---------- ----------
NHS261_NHS261    76.2       7.62       3          5          0         
NHS241_NHS241    76.2       7.62       3          5          0         
NHS259_NHS259    76.2       7.62       3          5          0         
NHS244_NHS244    76.2       7.62       3          5          0         
NHS217_SHALKOUT005 76.2       7.62       3          5          0         
FHS77_SHALKOUT002 76.2       7.62       3          5          0         
PYS5682_SHALKOUT003 76.2       7.62       3          5          0         
NYS2751_SHALKOUT004 76.2       7.62       3          5          0         
NHS235_NHS235    76.2       7.62       3          5          0         
PYS5671_PYS5671  76.2       7.62       3          5          0         
TIYUAN1_TIYUAN1  76.2       7.62       3          5          0         
IYS435_IYS435    76.2       7.62       3          5          0         
IYS476_IYS476    76.2       7.62       3          5          0         
JWS118_IYS1367   76.2       7.62       3          5          0         
IWS279_IYS1388   76.2       7.62       3          5          0         
JYS2328_JYS2328  76.2       7.62       3          5          0         
JWS305_KYS417    76.2       7.62       3          5          0         
IWS21_IYS63      76.2       7.62       3          5          0         
IWS8_IYS38       76.2       7.62       3          5          0         
IWS1_IYS1376     76.2       7.62       3          5          0         
IWS7_IYS32       76.2       7.62       3          5          0         
IYS344_IYS344    76.2       7.62       3          5          0         
IWS92_IYS220     76.2       7.62       3          5          0         
IWS88_IWS88      76.2       7.62       3          5          0         
IWS309_IYS175    76.2       7.62       3          5          0         
IWS305_IYS152    76.2       7.62       3          5          0         
UNKNOWNOUT001_UNKNOWNOUT001 76.2       7.62       3          5          0         
UNKNOWNOUT002_UNKNOWNOUT002 76.2       7.62       3          5          0         
CHUYUANDASHA_CHUYUANDASHA 76.2       7.62       3          5          0         
JWS146_ZHONGKEYUAN 76.2       7.62       3          5          0         
JWS196_JYS196    76.2       7.62       3          5          0         
JWS227_JYS327    76.2       7.62       3          5          0         
JWS255_JYS244    76.2       7.62       3          5          0         
JWS103_SHALKOUT006 76.2       7.62       3          5          0         
JWS25_SHALKOUT007 76.2       7.62       3          5          0         
JWS93_WUDA1      76.2       7.62       3          5          0         
JWS37_WUDA2      76.2       7.62       3          5          0         
JWS49_WUDAJIEGOULOU 76.2       7.62       3          5          0         
IWS288_SHALKOUT008 76.2       7.62       3          5          0         
KWS16_KWS16      76.2       7.62       3          5          0         
KWS22_KWS22      76.2       7.62       3          5          0         
PYS5680_PYS5680  76.2       7.62       3          5          0         
PYS5685_PYS5685  76.2       7.62       3          5          0         
KYS382_KYS382    76.2       7.62       3          5          0         
IYS964_IYS964    76.2       7.62       3          5          0         
IHS254_IHS189    76.2       7.62       3          5          0         
IYS399_IYS399    76.2       7.62       3          5          0         
FYS269_FWS80     76.2       7.62       3          5          0         
FWS42_SHACKOUT001 76.2       7.62       3          5          0         
KWS55_KYS227     76.2       7.62       3          5          0         
FWS220_GAOZHILOU 76.2       7.62       3          5          0         
FWS213_FYS636    76.2       7.62       3          5          0         
FWS175_FYS476    76.2       7.62       3          5          0         
FWS192_FYS540    76.2       7.62       3          5          0         
FWS119_FYS1257   76.2       7.62       3          5          0         
FWS295_FYS949    76.2       7.62       3          5          0         
KHS8_KYS611      76.2       7.62       3          5          0         
KHS14_KWS165     76.2       7.62       3          5          0         
KHS1_KHS1        76.2       7.62       3          5          0         
KHS19_KHS19      76.2       7.62       3          5          0         
IWS258_IHS235    76.2       7.62       3          5          0         
IWS265_IYS1343   76.2       7.62       3          5          0         
IWS206_IYS877    76.2       7.62       3          5          0         
KWS198_KWS198    76.2       7.62       3          5          0         
KWS288_KWS288    76.2       7.62       3          5          0         
KWS208_KWS208    76.2       7.62       3          5          0         
IHS181_IHS179    76.2       7.62       3          5          0         
IHS152_IHS152    76.2       7.62       3          5          0         
IHS154_IHS154    76.2       7.62       3          5          0         
IYS1420_IYS1420  76.2       7.62       3          5          0         
IYS1126_IYS1126  76.2       7.62       3          5          0         
IHS49_IHS49      76.2       7.62       3          5          0         
IWS165_IYS715    76.2       7.62       3          5          0         
IHS89_IHS90      76.2       7.62       3          5          0         
IHS94_IHS94      76.2       7.62       3          5          0         
IWS318_IYS614    76.2       7.62       3          5          0         
KYS1431_KWS49    76.2       7.62       3          5          0         
JYS1086_JYS1086  76.2       7.62       3          5          0         
FYS1188_FYS1188  76.2       7.62       3          5          0         
JYS1065_JYS1065  76.2       7.62       3          5          0         
KHS38_KWS485     76.2       7.62       3          5          0         
FYS1028_FYS1028  76.2       7.62       3          5          0         
KWS412_KWS412    76.2       7.62       3          5          0         
KYS1098_KYS1098  76.2       7.62       3          5          0         
FWS288_FYS1161   76.2       7.62       3          5          0         
FYS1242_FYS1242  76.2       7.62       3          5          0         
FWS318_FYS1115   76.2       7.62       3          5          0         
FWS320_FYS1094   76.2       7.62       3          5          0         
FWS338_FYS881    76.2       7.62       3          5          0         
FWS280_FYS860    76.2       7.62       3          5          0         
FWS152_FYS555    76.2       7.62       3          5          0         
FWS106_FYS546    76.2       7.62       3          5          0         
FHS75_FHS75      76.2       7.62       3          5          0         
FHS12_FHS12      76.2       7.62       3          5          0         
FHS68_FHS68      76.2       7.62       3          5          0         
IWS296_SHUISHENGSUO 76.2       7.62       3          5          0         
GASSTATION_GASSTATION 76.2       7.62       3          5          0         
FENGGUANGCUN1_FENGGUANGCUN1 76.2       7.62       3          5          0         
JYS23_JYS23      76.2       7.62       3          5          0         

[JUNCTIONS]
;;               Invert     Max.       Init.      Surcharge  Ponded    
;;Name           Elev.      Depth      Depth      Depth      Area      
;;-------------- ---------- ---------- ---------- ---------- ----------
IHS245           20.20      3.58       0          0          0         
IHS247           20.34      3.55       0          0          0         
IHS246           20.28      3.56       0          0          0         
IHS244           20.28      3.50       0          0          0         
IHS167           19.76      4.06       0          0          0         
IHS168           19.76      4.08       0          0          0         
IHS169           19.84      4.09       0          0          0         